<?xml version='1.0' encoding='UTF-8' standalone='yes' ?><hierarchy rotation="0"><node index="0" text="" resource-id="" class="android.widget.FrameLayout" package="com.razorpay.pos" content-desc="" checkable="false" checked="false" clickable="false" enabled="true" focusable="false" focused="false" scrollable="false" long-clickable="false" password="false" selected="false" bounds="[0,0][720,1280]"><node index="0" text="" resource-id="" class="android.widget.LinearLayout" package="com.razorpay.pos" content-desc="" checkable="false" checked="false" clickable="false" enabled="true" focusable="false" focused="false" scrollable="false" long-clickable="false" password="false" selected="false" bounds="[0,0][720,1280]"><node index="0" text="" resource-id="android:id/content" class="android.widget.FrameLayout" package="com.razorpay.pos" content-desc="" checkable="false" checked="false" clickable="false" enabled="true" focusable="false" focused="false" scrollable="false" long-clickable="false" password="false" selected="false" bounds="[0,48][720,1280]"><node index="0" text="" resource-id="" class="android.widget.FrameLayout" package="com.razorpay.pos" content-desc="" checkable="false" checked="false" clickable="false" enabled="true" focusable="false" focused="false" scrollable="false" long-clickable="false" password="false" selected="false" bounds="[0,48][720,1280]"><node index="0" text="" resource-id="" class="android.webkit.WebView" package="com.razorpay.pos" content-desc="" checkable="false" checked="false" clickable="false" enabled="true" focusable="false" focused="false" scrollable="false" long-clickable="false" password="false" selected="false" bounds="[0,48][720,1280]"><node index="0" text="" resource-id="" class="android.webkit.WebView" package="com.razorpay.pos" content-desc="" checkable="false" checked="false" clickable="false" enabled="true" focusable="true" focused="true" scrollable="true" long-clickable="false" password="false" selected="false" bounds="[0,48][720,1280]"><node index="0" text="" resource-id="" class="android.view.View" package="com.razorpay.pos" content-desc="" checkable="false" checked="false" clickable="true" enabled="true" focusable="false" focused="false" scrollable="false" long-clickable="false" password="false" selected="false" bounds="[0,48][720,1280]"><node index="0" text="" resource-id="" class="android.view.View" package="com.razorpay.pos" content-desc="" checkable="false" checked="false" clickable="false" enabled="true" focusable="false" focused="false" scrollable="false" long-clickable="false" password="false" selected="false" bounds="[0,48][720,1280]"><node index="0" text="" resource-id="txn-page" class="android.view.View" package="com.razorpay.pos" content-desc="" checkable="false" checked="false" clickable="false" enabled="true" focusable="false" focused="false" scrollable="false" long-clickable="false" password="false" selected="false" bounds="[0,48][720,1280]"><node index="0" text="" resource-id="txn-page-gradient" class="android.widget.TextView" package="com.razorpay.pos" content-desc="" checkable="false" checked="false" clickable="false" enabled="true" focusable="false" focused="false" scrollable="false" long-clickable="false" password="false" selected="false" bounds="[0,48][720,640]" /><node index="1" text="" resource-id="" class="android.view.View" package="com.razorpay.pos" content-desc="" checkable="false" checked="false" clickable="false" enabled="true" focusable="false" focused="false" scrollable="false" long-clickable="false" password="false" selected="false" bounds="[0,48][720,640]"><node index="0" text="" resource-id="" class="android.view.View" package="com.razorpay.pos" content-desc="" checkable="false" checked="false" clickable="false" enabled="true" focusable="false" focused="false" scrollable="false" long-clickable="false" password="false" selected="false" bounds="[206,128][514,440]"><node index="0" text="3f4a4d6f93384d93d938" resource-id="" class="android.widget.Image" package="com.razorpay.pos" content-desc="" checkable="false" checked="false" clickable="false" enabled="true" focusable="false" focused="false" scrollable="false" long-clickable="false" password="false" selected="false" bounds="[278,128][440,288]" /><node index="1" text="Thank you!" resource-id="" class="android.widget.TextView" package="com.razorpay.pos" content-desc="" checkable="false" checked="false" clickable="false" enabled="true" focusable="false" focused="false" scrollable="false" long-clickable="false" password="false" selected="false" bounds="[206,320][514,384]" /><node index="2" text="Payment Successful" resource-id="" class="android.widget.TextView" package="com.razorpay.pos" content-desc="" checkable="false" checked="false" clickable="false" enabled="true" focusable="false" focused="false" scrollable="false" long-clickable="false" password="false" selected="false" bounds="[206,392][514,440]" /></node><node index="1" text="" resource-id="" class="android.widget.TextView" package="com.razorpay.pos" content-desc="" checkable="false" checked="false" clickable="false" enabled="true" focusable="false" focused="false" scrollable="false" long-clickable="false" password="false" selected="false" bounds="[360,524][720,640]" /></node><node index="2" text="" resource-id="" class="android.view.View" package="com.razorpay.pos" content-desc="" checkable="false" checked="false" clickable="false" enabled="true" focusable="false" focused="false" scrollable="false" long-clickable="false" password="false" selected="false" bounds="[0,640][720,1280]"><node index="0" text="Amount received" resource-id="" class="android.widget.TextView" package="com.razorpay.pos" content-desc="" checkable="false" checked="false" clickable="false" enabled="true" focusable="false" focused="false" scrollable="false" long-clickable="false" password="false" selected="false" bounds="[230,716][490,756]" /><node index="1" text="₹" resource-id="" class="android.widget.TextView" package="com.razorpay.pos" content-desc="" checkable="false" checked="false" clickable="false" enabled="true" focusable="false" focused="false" scrollable="false" long-clickable="false" password="false" selected="false" bounds="[288,790][318,852]" /><node index="2" text="96" resource-id="" class="android.widget.TextView" package="com.razorpay.pos" content-desc="" checkable="false" checked="false" clickable="false" enabled="true" focusable="false" focused="false" scrollable="false" long-clickable="false" password="false" selected="false" bounds="[324,770][416,852]" /><node index="3" text="View Details" resource-id="" class="android.widget.Button" package="com.razorpay.pos" content-desc="" checkable="false" checked="false" clickable="true" enabled="true" focusable="true" focused="false" scrollable="false" long-clickable="false" password="false" selected="false" bounds="[268,866][452,904]" /><node index="4" text="Print Receipt" resource-id="" class="android.widget.Button" package="com.razorpay.pos" content-desc="" checkable="false" checked="false" clickable="true" enabled="true" focusable="true" focused="false" scrollable="false" long-clickable="false" password="false" selected="false" bounds="[32,990][352,1104]" /><node index="5" text="Send E-Receipt" resource-id="" class="android.widget.Button" package="com.razorpay.pos" content-desc="" checkable="false" checked="false" clickable="true" enabled="true" focusable="true" focused="false" scrollable="false" long-clickable="false" password="false" selected="false" bounds="[368,990][688,1104]" /><node index="6" text="Accept more payments" resource-id="" class="android.widget.Button" package="com.razorpay.pos" content-desc="" checkable="false" checked="false" clickable="true" enabled="true" focusable="true" focused="false" scrollable="false" long-clickable="false" password="false" selected="false" bounds="[32,1134][688,1248]" /></node></node></node></node></node></node></node></node></node><node index="1" text="" resource-id="android:id/statusBarBackground" class="android.view.View" package="com.razorpay.pos" content-desc="" checkable="false" checked="false" clickable="false" enabled="true" focusable="false" focused="false" scrollable="false" long-clickable="false" password="false" selected="false" bounds="[0,0][720,48]" /></node></hierarchy>